Circuit: * C:\RobotCasserole\RoboSim\PSPICE\RoboSim PWM Input Filter V2.asc

Direct Newton iteration for .op point succeeded.

Date: Thu Jun 25 19:24:41 2015
Total elapsed time: 0.149 seconds.

tnom = 27
temp = 27
method = modified trap
totiter = 3659
traniter = 3617
tranpoints = 1307
accept = 1237
rejected = 70
matrix size = 17
fillins = 9
solver = Normal
Matrix Compiler1: 1.21 KB object code size  0.8/0.4/[0.2]
Matrix Compiler2: off  [0.4]/0.6/0.6


